<?xml version="1.0" encoding="UTF-8"?>

<!-- generated on 2022-07-05 00:43:48 by Eclipse SUMO duarouter Version 1.12.0
<configuration xmlns:xsi="http://www.w3.org/2001/XMLSchema-instance" xsi:noNamespaceSchemaLocation="http://sumo.dlr.de/xsd/duarouterConfiguration.xsd">

    <input>
        <net-file value="rongwu1.net.xml"/>
        <route-files value="random_routes_test_I_II.xml"/>
    </input>

    <output>
        <output-file value="rongwu_route_I_II.rou.xml"/>
        <alternatives-output value="rongwu_route_I_II.rou.alt.xml"/>
    </output>

    <processing>
        <randomize-flows value="false"/>
    </processing>

    <report>
        <xml-validation value="never"/>
        <xml-validation.routes value="never"/>
    </report>

</configuration>
-->

<routes xmlns:xsi="http://www.w3.org/2001/XMLSchema-instance" xsi:noNamespaceSchemaLocation="http://sumo.dlr.de/xsd/routes_file.xsd">
    <vType id="type1" minGap="3.30" lcStrategic="1.5" lcCooperative="0.9" lcAssertive="2.5" accel="2.2" decel="3.8" emergencyDecel="9.0" sigma="0.3" tau="1.6"/>
    <vehicle id="m1.0" type="type1" depart="0.00" departLane="best" departPos="last" departSpeed="max">
        <route edges="lane0 lane1 lane2 lane3 lane4 lane5 lane6 lane7 lane8 lane9_1 lane9_2 lane10_1 lane10_2 lane10_3 lane11 lane12"/>
    </vehicle>
    <vehicle id="off1.0" type="type1" depart="0.00" departLane="best" departPos="last" departSpeed="max">
        <route edges="lane0 lane1 lane2 lane3 lane4 lane5 lane6 lane7 lane8 lane9_1 lane13 lane14"/>
    </vehicle>
    <vehicle id="on1.0" type="type1" depart="0.00" departLane="random" departPos="last" departSpeed="max">
        <route edges="lane16 lane15_1 lane15_2 lane10_2 lane10_3 lane11 lane12"/>
    </vehicle>
    <vehicle id="m1.1" type="type1" depart="0.78" departLane="best" departPos="last" departSpeed="max">
        <route edges="lane0 lane1 lane2 lane3 lane4 lane5 lane6 lane7 lane8 lane9_1 lane9_2 lane10_1 lane10_2 lane10_3 lane11 lane12"/>
    </vehicle>
    <vehicle id="m1.2" type="type1" depart="1.56" departLane="best" departPos="last" departSpeed="max">
        <route edges="lane0 lane1 lane2 lane3 lane4 lane5 lane6 lane7 lane8 lane9_1 lane9_2 lane10_1 lane10_2 lane10_3 lane11 lane12"/>
    </vehicle>
    <vehicle id="m1.3" type="type1" depart="2.34" departLane="best" departPos="last" departSpeed="max">
        <route edges="lane0 lane1 lane2 lane3 lane4 lane5 lane6 lane7 lane8 lane9_1 lane9_2 lane10_1 lane10_2 lane10_3 lane11 lane12"/>
    </vehicle>
    <vehicle id="m1.4" type="type1" depart="3.12" departLane="best" departPos="last" departSpeed="max">
        <route edges="lane0 lane1 lane2 lane3 lane4 lane5 lane6 lane7 lane8 lane9_1 lane9_2 lane10_1 lane10_2 lane10_3 lane11 lane12"/>
    </vehicle>
    <vehicle id="m1.5" type="type1" depart="3.90" departLane="best" departPos="last" departSpeed="max">
        <route edges="lane0 lane1 lane2 lane3 lane4 lane5 lane6 lane7 lane8 lane9_1 lane9_2 lane10_1 lane10_2 lane10_3 lane11 lane12"/>
    </vehicle>
    <vehicle id="on1.1" type="type1" depart="4.50" departLane="random" departPos="last" departSpeed="max">
        <route edges="lane16 lane15_1 lane15_2 lane10_2 lane10_3 lane11 lane12"/>
    </vehicle>
    <vehicle id="m1.6" type="type1" depart="4.68" departLane="best" departPos="last" departSpeed="max">
        <route edges="lane0 lane1 lane2 lane3 lane4 lane5 lane6 lane7 lane8 lane9_1 lane9_2 lane10_1 lane10_2 lane10_3 lane11 lane12"/>
    </vehicle>
    <vehicle id="m1.7" type="type1" depart="5.46" departLane="best" departPos="last" departSpeed="max">
        <route edges="lane0 lane1 lane2 lane3 lane4 lane5 lane6 lane7 lane8 lane9_1 lane9_2 lane10_1 lane10_2 lane10_3 lane11 lane12"/>
    </vehicle>
    <vehicle id="m1.8" type="type1" depart="6.24" departLane="best" departPos="last" departSpeed="max">
        <route edges="lane0 lane1 lane2 lane3 lane4 lane5 lane6 lane7 lane8 lane9_1 lane9_2 lane10_1 lane10_2 lane10_3 lane11 lane12"/>
    </vehicle>
    <vehicle id="m1.9" type="type1" depart="7.02" departLane="best" departPos="last" departSpeed="max">
        <route edges="lane0 lane1 lane2 lane3 lane4 lane5 lane6 lane7 lane8 lane9_1 lane9_2 lane10_1 lane10_2 lane10_3 lane11 lane12"/>
    </vehicle>
    <vehicle id="m1.10" type="type1" depart="7.80" departLane="best" departPos="last" departSpeed="max">
        <route edges="lane0 lane1 lane2 lane3 lane4 lane5 lane6 lane7 lane8 lane9_1 lane9_2 lane10_1 lane10_2 lane10_3 lane11 lane12"/>
    </vehicle>
    <vehicle id="m1.11" type="type1" depart="8.58" departLane="best" departPos="last" departSpeed="max">
        <route edges="lane0 lane1 lane2 lane3 lane4 lane5 lane6 lane7 lane8 lane9_1 lane9_2 lane10_1 lane10_2 lane10_3 lane11 lane12"/>
    </vehicle>
    <vehicle id="on1.2" type="type1" depart="9.00" departLane="random" departPos="last" departSpeed="max">
        <route edges="lane16 lane15_1 lane15_2 lane10_2 lane10_3 lane11 lane12"/>
    </vehicle>
    <vehicle id="m1.12" type="type1" depart="9.36" departLane="best" departPos="last" departSpeed="max">
        <route edges="lane0 lane1 lane2 lane3 lane4 lane5 lane6 lane7 lane8 lane9_1 lane9_2 lane10_1 lane10_2 lane10_3 lane11 lane12"/>
    </vehicle>
    <vehicle id="m1.13" type="type1" depart="10.14" departLane="best" departPos="last" departSpeed="max">
        <route edges="lane0 lane1 lane2 lane3 lane4 lane5 lane6 lane7 lane8 lane9_1 lane9_2 lane10_1 lane10_2 lane10_3 lane11 lane12"/>
    </vehicle>
    <vehicle id="m1.14" type="type1" depart="10.92" departLane="best" departPos="last" departSpeed="max">
        <route edges="lane0 lane1 lane2 lane3 lane4 lane5 lane6 lane7 lane8 lane9_1 lane9_2 lane10_1 lane10_2 lane10_3 lane11 lane12"/>
    </vehicle>
    <vehicle id="m1.15" type="type1" depart="11.70" departLane="best" departPos="last" departSpeed="max">
        <route edges="lane0 lane1 lane2 lane3 lane4 lane5 lane6 lane7 lane8 lane9_1 lane9_2 lane10_1 lane10_2 lane10_3 lane11 lane12"/>
    </vehicle>
    <vehicle id="m1.16" type="type1" depart="12.48" departLane="best" departPos="last" departSpeed="max">
        <route edges="lane0 lane1 lane2 lane3 lane4 lane5 lane6 lane7 lane8 lane9_1 lane9_2 lane10_1 lane10_2 lane10_3 lane11 lane12"/>
    </vehicle>
    <vehicle id="m1.17" type="type1" depart="13.26" departLane="best" departPos="last" departSpeed="max">
        <route edges="lane0 lane1 lane2 lane3 lane4 lane5 lane6 lane7 lane8 lane9_1 lane9_2 lane10_1 lane10_2 lane10_3 lane11 lane12"/>
    </vehicle>
    <vehicle id="on1.3" type="type1" depart="13.50" departLane="random" departPos="last" departSpeed="max">
        <route edges="lane16 lane15_1 lane15_2 lane10_2 lane10_3 lane11 lane12"/>
    </vehicle>
    <vehicle id="m1.18" type="type1" depart="14.04" departLane="best" departPos="last" departSpeed="max">
        <route edges="lane0 lane1 lane2 lane3 lane4 lane5 lane6 lane7 lane8 lane9_1 lane9_2 lane10_1 lane10_2 lane10_3 lane11 lane12"/>
    </vehicle>
    <vehicle id="m1.19" type="type1" depart="14.82" departLane="best" departPos="last" departSpeed="max">
        <route edges="lane0 lane1 lane2 lane3 lane4 lane5 lane6 lane7 lane8 lane9_1 lane9_2 lane10_1 lane10_2 lane10_3 lane11 lane12"/>
    </vehicle>
    <vehicle id="m1.20" type="type1" depart="15.60" departLane="best" departPos="last" departSpeed="max">
        <route edges="lane0 lane1 lane2 lane3 lane4 lane5 lane6 lane7 lane8 lane9_1 lane9_2 lane10_1 lane10_2 lane10_3 lane11 lane12"/>
    </vehicle>
    <vehicle id="m1.21" type="type1" depart="16.38" departLane="best" departPos="last" departSpeed="max">
        <route edges="lane0 lane1 lane2 lane3 lane4 lane5 lane6 lane7 lane8 lane9_1 lane9_2 lane10_1 lane10_2 lane10_3 lane11 lane12"/>
    </vehicle>
    <vehicle id="m1.22" type="type1" depart="17.16" departLane="best" departPos="last" departSpeed="max">
        <route edges="lane0 lane1 lane2 lane3 lane4 lane5 lane6 lane7 lane8 lane9_1 lane9_2 lane10_1 lane10_2 lane10_3 lane11 lane12"/>
    </vehicle>
    <vehicle id="m1.23" type="type1" depart="17.94" departLane="best" departPos="last" departSpeed="max">
        <route edges="lane0 lane1 lane2 lane3 lane4 lane5 lane6 lane7 lane8 lane9_1 lane9_2 lane10_1 lane10_2 lane10_3 lane11 lane12"/>
    </vehicle>
    <vehicle id="on1.4" type="type1" depart="18.00" departLane="random" departPos="last" departSpeed="max">
        <route edges="lane16 lane15_1 lane15_2 lane10_2 lane10_3 lane11 lane12"/>
    </vehicle>
    <vehicle id="m1.24" type="type1" depart="18.72" departLane="best" departPos="last" departSpeed="max">
        <route edges="lane0 lane1 lane2 lane3 lane4 lane5 lane6 lane7 lane8 lane9_1 lane9_2 lane10_1 lane10_2 lane10_3 lane11 lane12"/>
    </vehicle>
    <vehicle id="m1.25" type="type1" depart="19.50" departLane="best" departPos="last" departSpeed="max">
        <route edges="lane0 lane1 lane2 lane3 lane4 lane5 lane6 lane7 lane8 lane9_1 lane9_2 lane10_1 lane10_2 lane10_3 lane11 lane12"/>
    </vehicle>
    <vehicle id="off1.1" type="type1" depart="20.00" departLane="best" departPos="last" departSpeed="max">
        <route edges="lane0 lane1 lane2 lane3 lane4 lane5 lane6 lane7 lane8 lane9_1 lane13 lane14"/>
    </vehicle>
    <vehicle id="m1.26" type="type1" depart="20.28" departLane="best" departPos="last" departSpeed="max">
        <route edges="lane0 lane1 lane2 lane3 lane4 lane5 lane6 lane7 lane8 lane9_1 lane9_2 lane10_1 lane10_2 lane10_3 lane11 lane12"/>
    </vehicle>
    <vehicle id="m1.27" type="type1" depart="21.06" departLane="best" departPos="last" departSpeed="max">
        <route edges="lane0 lane1 lane2 lane3 lane4 lane5 lane6 lane7 lane8 lane9_1 lane9_2 lane10_1 lane10_2 lane10_3 lane11 lane12"/>
    </vehicle>
    <vehicle id="m1.28" type="type1" depart="21.84" departLane="best" departPos="last" departSpeed="max">
        <route edges="lane0 lane1 lane2 lane3 lane4 lane5 lane6 lane7 lane8 lane9_1 lane9_2 lane10_1 lane10_2 lane10_3 lane11 lane12"/>
    </vehicle>
    <vehicle id="on1.5" type="type1" depart="22.50" departLane="random" departPos="last" departSpeed="max">
        <route edges="lane16 lane15_1 lane15_2 lane10_2 lane10_3 lane11 lane12"/>
    </vehicle>
    <vehicle id="m1.29" type="type1" depart="22.62" departLane="best" departPos="last" departSpeed="max">
        <route edges="lane0 lane1 lane2 lane3 lane4 lane5 lane6 lane7 lane8 lane9_1 lane9_2 lane10_1 lane10_2 lane10_3 lane11 lane12"/>
    </vehicle>
    <vehicle id="m1.30" type="type1" depart="23.40" departLane="best" departPos="last" departSpeed="max">
        <route edges="lane0 lane1 lane2 lane3 lane4 lane5 lane6 lane7 lane8 lane9_1 lane9_2 lane10_1 lane10_2 lane10_3 lane11 lane12"/>
    </vehicle>
    <vehicle id="m1.31" type="type1" depart="24.18" departLane="best" departPos="last" departSpeed="max">
        <route edges="lane0 lane1 lane2 lane3 lane4 lane5 lane6 lane7 lane8 lane9_1 lane9_2 lane10_1 lane10_2 lane10_3 lane11 lane12"/>
    </vehicle>
    <vehicle id="m1.32" type="type1" depart="24.96" departLane="best" departPos="last" departSpeed="max">
        <route edges="lane0 lane1 lane2 lane3 lane4 lane5 lane6 lane7 lane8 lane9_1 lane9_2 lane10_1 lane10_2 lane10_3 lane11 lane12"/>
    </vehicle>
    <vehicle id="m1.33" type="type1" depart="25.74" departLane="best" departPos="last" departSpeed="max">
        <route edges="lane0 lane1 lane2 lane3 lane4 lane5 lane6 lane7 lane8 lane9_1 lane9_2 lane10_1 lane10_2 lane10_3 lane11 lane12"/>
    </vehicle>
    <vehicle id="m1.34" type="type1" depart="26.52" departLane="best" departPos="last" departSpeed="max">
        <route edges="lane0 lane1 lane2 lane3 lane4 lane5 lane6 lane7 lane8 lane9_1 lane9_2 lane10_1 lane10_2 lane10_3 lane11 lane12"/>
    </vehicle>
    <vehicle id="on1.6" type="type1" depart="27.00" departLane="random" departPos="last" departSpeed="max">
        <route edges="lane16 lane15_1 lane15_2 lane10_2 lane10_3 lane11 lane12"/>
    </vehicle>
    <vehicle id="m1.35" type="type1" depart="27.30" departLane="best" departPos="last" departSpeed="max">
        <route edges="lane0 lane1 lane2 lane3 lane4 lane5 lane6 lane7 lane8 lane9_1 lane9_2 lane10_1 lane10_2 lane10_3 lane11 lane12"/>
    </vehicle>
    <vehicle id="m1.36" type="type1" depart="28.08" departLane="best" departPos="last" departSpeed="max">
        <route edges="lane0 lane1 lane2 lane3 lane4 lane5 lane6 lane7 lane8 lane9_1 lane9_2 lane10_1 lane10_2 lane10_3 lane11 lane12"/>
    </vehicle>
    <vehicle id="m1.37" type="type1" depart="28.86" departLane="best" departPos="last" departSpeed="max">
        <route edges="lane0 lane1 lane2 lane3 lane4 lane5 lane6 lane7 lane8 lane9_1 lane9_2 lane10_1 lane10_2 lane10_3 lane11 lane12"/>
    </vehicle>
    <vehicle id="m1.38" type="type1" depart="29.64" departLane="best" departPos="last" departSpeed="max">
        <route edges="lane0 lane1 lane2 lane3 lane4 lane5 lane6 lane7 lane8 lane9_1 lane9_2 lane10_1 lane10_2 lane10_3 lane11 lane12"/>
    </vehicle>
    <vehicle id="m1.39" type="type1" depart="30.42" departLane="best" departPos="last" departSpeed="max">
        <route edges="lane0 lane1 lane2 lane3 lane4 lane5 lane6 lane7 lane8 lane9_1 lane9_2 lane10_1 lane10_2 lane10_3 lane11 lane12"/>
    </vehicle>
    <vehicle id="m1.40" type="type1" depart="31.20" departLane="best" departPos="last" departSpeed="max">
        <route edges="lane0 lane1 lane2 lane3 lane4 lane5 lane6 lane7 lane8 lane9_1 lane9_2 lane10_1 lane10_2 lane10_3 lane11 lane12"/>
    </vehicle>
    <vehicle id="on1.7" type="type1" depart="31.50" departLane="random" departPos="last" departSpeed="max">
        <route edges="lane16 lane15_1 lane15_2 lane10_2 lane10_3 lane11 lane12"/>
    </vehicle>
    <vehicle id="m1.41" type="type1" depart="31.98" departLane="best" departPos="last" departSpeed="max">
        <route edges="lane0 lane1 lane2 lane3 lane4 lane5 lane6 lane7 lane8 lane9_1 lane9_2 lane10_1 lane10_2 lane10_3 lane11 lane12"/>
    </vehicle>
    <vehicle id="m1.42" type="type1" depart="32.76" departLane="best" departPos="last" departSpeed="max">
        <route edges="lane0 lane1 lane2 lane3 lane4 lane5 lane6 lane7 lane8 lane9_1 lane9_2 lane10_1 lane10_2 lane10_3 lane11 lane12"/>
    </vehicle>
    <vehicle id="m1.43" type="type1" depart="33.54" departLane="best" departPos="last" departSpeed="max">
        <route edges="lane0 lane1 lane2 lane3 lane4 lane5 lane6 lane7 lane8 lane9_1 lane9_2 lane10_1 lane10_2 lane10_3 lane11 lane12"/>
    </vehicle>
    <vehicle id="m1.44" type="type1" depart="34.32" departLane="best" departPos="last" departSpeed="max">
        <route edges="lane0 lane1 lane2 lane3 lane4 lane5 lane6 lane7 lane8 lane9_1 lane9_2 lane10_1 lane10_2 lane10_3 lane11 lane12"/>
    </vehicle>
    <vehicle id="m1.45" type="type1" depart="35.10" departLane="best" departPos="last" departSpeed="max">
        <route edges="lane0 lane1 lane2 lane3 lane4 lane5 lane6 lane7 lane8 lane9_1 lane9_2 lane10_1 lane10_2 lane10_3 lane11 lane12"/>
    </vehicle>
    <vehicle id="m1.46" type="type1" depart="35.88" departLane="best" departPos="last" departSpeed="max">
        <route edges="lane0 lane1 lane2 lane3 lane4 lane5 lane6 lane7 lane8 lane9_1 lane9_2 lane10_1 lane10_2 lane10_3 lane11 lane12"/>
    </vehicle>
    <vehicle id="on1.8" type="type1" depart="36.00" departLane="random" departPos="last" departSpeed="max">
        <route edges="lane16 lane15_1 lane15_2 lane10_2 lane10_3 lane11 lane12"/>
    </vehicle>
    <vehicle id="m1.47" type="type1" depart="36.66" departLane="best" departPos="last" departSpeed="max">
        <route edges="lane0 lane1 lane2 lane3 lane4 lane5 lane6 lane7 lane8 lane9_1 lane9_2 lane10_1 lane10_2 lane10_3 lane11 lane12"/>
    </vehicle>
    <vehicle id="m1.48" type="type1" depart="37.44" departLane="best" departPos="last" departSpeed="max">
        <route edges="lane0 lane1 lane2 lane3 lane4 lane5 lane6 lane7 lane8 lane9_1 lane9_2 lane10_1 lane10_2 lane10_3 lane11 lane12"/>
    </vehicle>
    <vehicle id="m1.49" type="type1" depart="38.22" departLane="best" departPos="last" departSpeed="max">
        <route edges="lane0 lane1 lane2 lane3 lane4 lane5 lane6 lane7 lane8 lane9_1 lane9_2 lane10_1 lane10_2 lane10_3 lane11 lane12"/>
    </vehicle>
    <vehicle id="m1.50" type="type1" depart="39.00" departLane="best" departPos="last" departSpeed="max">
        <route edges="lane0 lane1 lane2 lane3 lane4 lane5 lane6 lane7 lane8 lane9_1 lane9_2 lane10_1 lane10_2 lane10_3 lane11 lane12"/>
    </vehicle>
    <vehicle id="m1.51" type="type1" depart="39.78" departLane="best" departPos="last" departSpeed="max">
        <route edges="lane0 lane1 lane2 lane3 lane4 lane5 lane6 lane7 lane8 lane9_1 lane9_2 lane10_1 lane10_2 lane10_3 lane11 lane12"/>
    </vehicle>
    <vehicle id="off1.2" type="type1" depart="40.00" departLane="best" departPos="last" departSpeed="max">
        <route edges="lane0 lane1 lane2 lane3 lane4 lane5 lane6 lane7 lane8 lane9_1 lane13 lane14"/>
    </vehicle>
    <vehicle id="on1.9" type="type1" depart="40.50" departLane="random" departPos="last" departSpeed="max">
        <route edges="lane16 lane15_1 lane15_2 lane10_2 lane10_3 lane11 lane12"/>
    </vehicle>
    <vehicle id="m1.52" type="type1" depart="40.56" departLane="best" departPos="last" departSpeed="max">
        <route edges="lane0 lane1 lane2 lane3 lane4 lane5 lane6 lane7 lane8 lane9_1 lane9_2 lane10_1 lane10_2 lane10_3 lane11 lane12"/>
    </vehicle>
    <vehicle id="m1.53" type="type1" depart="41.34" departLane="best" departPos="last" departSpeed="max">
        <route edges="lane0 lane1 lane2 lane3 lane4 lane5 lane6 lane7 lane8 lane9_1 lane9_2 lane10_1 lane10_2 lane10_3 lane11 lane12"/>
    </vehicle>
    <vehicle id="m1.54" type="type1" depart="42.12" departLane="best" departPos="last" departSpeed="max">
        <route edges="lane0 lane1 lane2 lane3 lane4 lane5 lane6 lane7 lane8 lane9_1 lane9_2 lane10_1 lane10_2 lane10_3 lane11 lane12"/>
    </vehicle>
    <vehicle id="m1.55" type="type1" depart="42.90" departLane="best" departPos="last" departSpeed="max">
        <route edges="lane0 lane1 lane2 lane3 lane4 lane5 lane6 lane7 lane8 lane9_1 lane9_2 lane10_1 lane10_2 lane10_3 lane11 lane12"/>
    </vehicle>
    <vehicle id="m1.56" type="type1" depart="43.68" departLane="best" departPos="last" departSpeed="max">
        <route edges="lane0 lane1 lane2 lane3 lane4 lane5 lane6 lane7 lane8 lane9_1 lane9_2 lane10_1 lane10_2 lane10_3 lane11 lane12"/>
    </vehicle>
    <vehicle id="m1.57" type="type1" depart="44.46" departLane="best" departPos="last" departSpeed="max">
        <route edges="lane0 lane1 lane2 lane3 lane4 lane5 lane6 lane7 lane8 lane9_1 lane9_2 lane10_1 lane10_2 lane10_3 lane11 lane12"/>
    </vehicle>
    <vehicle id="on1.10" type="type1" depart="45.00" departLane="random" departPos="last" departSpeed="max">
        <route edges="lane16 lane15_1 lane15_2 lane10_2 lane10_3 lane11 lane12"/>
    </vehicle>
    <vehicle id="m1.58" type="type1" depart="45.24" departLane="best" departPos="last" departSpeed="max">
        <route edges="lane0 lane1 lane2 lane3 lane4 lane5 lane6 lane7 lane8 lane9_1 lane9_2 lane10_1 lane10_2 lane10_3 lane11 lane12"/>
    </vehicle>
    <vehicle id="m1.59" type="type1" depart="46.02" departLane="best" departPos="last" departSpeed="max">
        <route edges="lane0 lane1 lane2 lane3 lane4 lane5 lane6 lane7 lane8 lane9_1 lane9_2 lane10_1 lane10_2 lane10_3 lane11 lane12"/>
    </vehicle>
    <vehicle id="m1.60" type="type1" depart="46.80" departLane="best" departPos="last" departSpeed="max">
        <route edges="lane0 lane1 lane2 lane3 lane4 lane5 lane6 lane7 lane8 lane9_1 lane9_2 lane10_1 lane10_2 lane10_3 lane11 lane12"/>
    </vehicle>
    <vehicle id="m1.61" type="type1" depart="47.58" departLane="best" departPos="last" departSpeed="max">
        <route edges="lane0 lane1 lane2 lane3 lane4 lane5 lane6 lane7 lane8 lane9_1 lane9_2 lane10_1 lane10_2 lane10_3 lane11 lane12"/>
    </vehicle>
    <vehicle id="m1.62" type="type1" depart="48.36" departLane="best" departPos="last" departSpeed="max">
        <route edges="lane0 lane1 lane2 lane3 lane4 lane5 lane6 lane7 lane8 lane9_1 lane9_2 lane10_1 lane10_2 lane10_3 lane11 lane12"/>
    </vehicle>
    <vehicle id="m1.63" type="type1" depart="49.14" departLane="best" departPos="last" departSpeed="max">
        <route edges="lane0 lane1 lane2 lane3 lane4 lane5 lane6 lane7 lane8 lane9_1 lane9_2 lane10_1 lane10_2 lane10_3 lane11 lane12"/>
    </vehicle>
    <vehicle id="on1.11" type="type1" depart="49.50" departLane="random" departPos="last" departSpeed="max">
        <route edges="lane16 lane15_1 lane15_2 lane10_2 lane10_3 lane11 lane12"/>
    </vehicle>
    <vehicle id="m1.64" type="type1" depart="49.92" departLane="best" departPos="last" departSpeed="max">
        <route edges="lane0 lane1 lane2 lane3 lane4 lane5 lane6 lane7 lane8 lane9_1 lane9_2 lane10_1 lane10_2 lane10_3 lane11 lane12"/>
    </vehicle>
    <vehicle id="m1.65" type="type1" depart="50.70" departLane="best" departPos="last" departSpeed="max">
        <route edges="lane0 lane1 lane2 lane3 lane4 lane5 lane6 lane7 lane8 lane9_1 lane9_2 lane10_1 lane10_2 lane10_3 lane11 lane12"/>
    </vehicle>
    <vehicle id="m1.66" type="type1" depart="51.48" departLane="best" departPos="last" departSpeed="max">
        <route edges="lane0 lane1 lane2 lane3 lane4 lane5 lane6 lane7 lane8 lane9_1 lane9_2 lane10_1 lane10_2 lane10_3 lane11 lane12"/>
    </vehicle>
    <vehicle id="m1.67" type="type1" depart="52.26" departLane="best" departPos="last" departSpeed="max">
        <route edges="lane0 lane1 lane2 lane3 lane4 lane5 lane6 lane7 lane8 lane9_1 lane9_2 lane10_1 lane10_2 lane10_3 lane11 lane12"/>
    </vehicle>
    <vehicle id="m1.68" type="type1" depart="53.04" departLane="best" departPos="last" departSpeed="max">
        <route edges="lane0 lane1 lane2 lane3 lane4 lane5 lane6 lane7 lane8 lane9_1 lane9_2 lane10_1 lane10_2 lane10_3 lane11 lane12"/>
    </vehicle>
    <vehicle id="m1.69" type="type1" depart="53.82" departLane="best" departPos="last" departSpeed="max">
        <route edges="lane0 lane1 lane2 lane3 lane4 lane5 lane6 lane7 lane8 lane9_1 lane9_2 lane10_1 lane10_2 lane10_3 lane11 lane12"/>
    </vehicle>
    <vehicle id="on1.12" type="type1" depart="54.00" departLane="random" departPos="last" departSpeed="max">
        <route edges="lane16 lane15_1 lane15_2 lane10_2 lane10_3 lane11 lane12"/>
    </vehicle>
    <vehicle id="m1.70" type="type1" depart="54.60" departLane="best" departPos="last" departSpeed="max">
        <route edges="lane0 lane1 lane2 lane3 lane4 lane5 lane6 lane7 lane8 lane9_1 lane9_2 lane10_1 lane10_2 lane10_3 lane11 lane12"/>
    </vehicle>
    <vehicle id="m1.71" type="type1" depart="55.38" departLane="best" departPos="last" departSpeed="max">
        <route edges="lane0 lane1 lane2 lane3 lane4 lane5 lane6 lane7 lane8 lane9_1 lane9_2 lane10_1 lane10_2 lane10_3 lane11 lane12"/>
    </vehicle>
    <vehicle id="m1.72" type="type1" depart="56.16" departLane="best" departPos="last" departSpeed="max">
        <route edges="lane0 lane1 lane2 lane3 lane4 lane5 lane6 lane7 lane8 lane9_1 lane9_2 lane10_1 lane10_2 lane10_3 lane11 lane12"/>
    </vehicle>
    <vehicle id="m1.73" type="type1" depart="56.94" departLane="best" departPos="last" departSpeed="max">
        <route edges="lane0 lane1 lane2 lane3 lane4 lane5 lane6 lane7 lane8 lane9_1 lane9_2 lane10_1 lane10_2 lane10_3 lane11 lane12"/>
    </vehicle>
    <vehicle id="m1.74" type="type1" depart="57.72" departLane="best" departPos="last" departSpeed="max">
        <route edges="lane0 lane1 lane2 lane3 lane4 lane5 lane6 lane7 lane8 lane9_1 lane9_2 lane10_1 lane10_2 lane10_3 lane11 lane12"/>
    </vehicle>
    <vehicle id="m1.75" type="type1" depart="58.50" departLane="best" departPos="last" departSpeed="max">
        <route edges="lane0 lane1 lane2 lane3 lane4 lane5 lane6 lane7 lane8 lane9_1 lane9_2 lane10_1 lane10_2 lane10_3 lane11 lane12"/>
    </vehicle>
    <vehicle id="on1.13" type="type1" depart="58.50" departLane="random" departPos="last" departSpeed="max">
        <route edges="lane16 lane15_1 lane15_2 lane10_2 lane10_3 lane11 lane12"/>
    </vehicle>
    <vehicle id="m1.76" type="type1" depart="59.28" departLane="best" departPos="last" departSpeed="max">
        <route edges="lane0 lane1 lane2 lane3 lane4 lane5 lane6 lane7 lane8 lane9_1 lane9_2 lane10_1 lane10_2 lane10_3 lane11 lane12"/>
    </vehicle>
    <vehicle id="off1.3" type="type1" depart="60.00" departLane="best" departPos="last" departSpeed="max">
        <route edges="lane0 lane1 lane2 lane3 lane4 lane5 lane6 lane7 lane8 lane9_1 lane13 lane14"/>
    </vehicle>
    <vehicle id="m1.77" type="type1" depart="60.06" departLane="best" departPos="last" departSpeed="max">
        <route edges="lane0 lane1 lane2 lane3 lane4 lane5 lane6 lane7 lane8 lane9_1 lane9_2 lane10_1 lane10_2 lane10_3 lane11 lane12"/>
    </vehicle>
    <vehicle id="m1.78" type="type1" depart="60.84" departLane="best" departPos="last" departSpeed="max">
        <route edges="lane0 lane1 lane2 lane3 lane4 lane5 lane6 lane7 lane8 lane9_1 lane9_2 lane10_1 lane10_2 lane10_3 lane11 lane12"/>
    </vehicle>
    <vehicle id="m1.79" type="type1" depart="61.62" departLane="best" departPos="last" departSpeed="max">
        <route edges="lane0 lane1 lane2 lane3 lane4 lane5 lane6 lane7 lane8 lane9_1 lane9_2 lane10_1 lane10_2 lane10_3 lane11 lane12"/>
    </vehicle>
    <vehicle id="m1.80" type="type1" depart="62.40" departLane="best" departPos="last" departSpeed="max">
        <route edges="lane0 lane1 lane2 lane3 lane4 lane5 lane6 lane7 lane8 lane9_1 lane9_2 lane10_1 lane10_2 lane10_3 lane11 lane12"/>
    </vehicle>
    <vehicle id="on1.14" type="type1" depart="63.00" departLane="random" departPos="last" departSpeed="max">
        <route edges="lane16 lane15_1 lane15_2 lane10_2 lane10_3 lane11 lane12"/>
    </vehicle>
    <vehicle id="m1.81" type="type1" depart="63.18" departLane="best" departPos="last" departSpeed="max">
        <route edges="lane0 lane1 lane2 lane3 lane4 lane5 lane6 lane7 lane8 lane9_1 lane9_2 lane10_1 lane10_2 lane10_3 lane11 lane12"/>
    </vehicle>
    <vehicle id="m1.82" type="type1" depart="63.96" departLane="best" departPos="last" departSpeed="max">
        <route edges="lane0 lane1 lane2 lane3 lane4 lane5 lane6 lane7 lane8 lane9_1 lane9_2 lane10_1 lane10_2 lane10_3 lane11 lane12"/>
    </vehicle>
    <vehicle id="m1.83" type="type1" depart="64.74" departLane="best" departPos="last" departSpeed="max">
        <route edges="lane0 lane1 lane2 lane3 lane4 lane5 lane6 lane7 lane8 lane9_1 lane9_2 lane10_1 lane10_2 lane10_3 lane11 lane12"/>
    </vehicle>
    <vehicle id="m1.84" type="type1" depart="65.52" departLane="best" departPos="last" departSpeed="max">
        <route edges="lane0 lane1 lane2 lane3 lane4 lane5 lane6 lane7 lane8 lane9_1 lane9_2 lane10_1 lane10_2 lane10_3 lane11 lane12"/>
    </vehicle>
    <vehicle id="m1.85" type="type1" depart="66.30" departLane="best" departPos="last" departSpeed="max">
        <route edges="lane0 lane1 lane2 lane3 lane4 lane5 lane6 lane7 lane8 lane9_1 lane9_2 lane10_1 lane10_2 lane10_3 lane11 lane12"/>
    </vehicle>
    <vehicle id="m1.86" type="type1" depart="67.08" departLane="best" departPos="last" departSpeed="max">
        <route edges="lane0 lane1 lane2 lane3 lane4 lane5 lane6 lane7 lane8 lane9_1 lane9_2 lane10_1 lane10_2 lane10_3 lane11 lane12"/>
    </vehicle>
    <vehicle id="on1.15" type="type1" depart="67.50" departLane="random" departPos="last" departSpeed="max">
        <route edges="lane16 lane15_1 lane15_2 lane10_2 lane10_3 lane11 lane12"/>
    </vehicle>
    <vehicle id="m1.87" type="type1" depart="67.86" departLane="best" departPos="last" departSpeed="max">
        <route edges="lane0 lane1 lane2 lane3 lane4 lane5 lane6 lane7 lane8 lane9_1 lane9_2 lane10_1 lane10_2 lane10_3 lane11 lane12"/>
    </vehicle>
    <vehicle id="m1.88" type="type1" depart="68.64" departLane="best" departPos="last" departSpeed="max">
        <route edges="lane0 lane1 lane2 lane3 lane4 lane5 lane6 lane7 lane8 lane9_1 lane9_2 lane10_1 lane10_2 lane10_3 lane11 lane12"/>
    </vehicle>
    <vehicle id="m1.89" type="type1" depart="69.42" departLane="best" departPos="last" departSpeed="max">
        <route edges="lane0 lane1 lane2 lane3 lane4 lane5 lane6 lane7 lane8 lane9_1 lane9_2 lane10_1 lane10_2 lane10_3 lane11 lane12"/>
    </vehicle>
    <vehicle id="m1.90" type="type1" depart="70.20" departLane="best" departPos="last" departSpeed="max">
        <route edges="lane0 lane1 lane2 lane3 lane4 lane5 lane6 lane7 lane8 lane9_1 lane9_2 lane10_1 lane10_2 lane10_3 lane11 lane12"/>
    </vehicle>
    <vehicle id="m1.91" type="type1" depart="70.98" departLane="best" departPos="last" departSpeed="max">
        <route edges="lane0 lane1 lane2 lane3 lane4 lane5 lane6 lane7 lane8 lane9_1 lane9_2 lane10_1 lane10_2 lane10_3 lane11 lane12"/>
    </vehicle>
    <vehicle id="m1.92" type="type1" depart="71.76" departLane="best" departPos="last" departSpeed="max">
        <route edges="lane0 lane1 lane2 lane3 lane4 lane5 lane6 lane7 lane8 lane9_1 lane9_2 lane10_1 lane10_2 lane10_3 lane11 lane12"/>
    </vehicle>
    <vehicle id="on1.16" type="type1" depart="72.00" departLane="random" departPos="last" departSpeed="max">
        <route edges="lane16 lane15_1 lane15_2 lane10_2 lane10_3 lane11 lane12"/>
    </vehicle>
    <vehicle id="m1.93" type="type1" depart="72.54" departLane="best" departPos="last" departSpeed="max">
        <route edges="lane0 lane1 lane2 lane3 lane4 lane5 lane6 lane7 lane8 lane9_1 lane9_2 lane10_1 lane10_2 lane10_3 lane11 lane12"/>
    </vehicle>
    <vehicle id="m1.94" type="type1" depart="73.32" departLane="best" departPos="last" departSpeed="max">
        <route edges="lane0 lane1 lane2 lane3 lane4 lane5 lane6 lane7 lane8 lane9_1 lane9_2 lane10_1 lane10_2 lane10_3 lane11 lane12"/>
    </vehicle>
    <vehicle id="m1.95" type="type1" depart="74.10" departLane="best" departPos="last" departSpeed="max">