<?xml version="1.0" encoding="UTF-8"?>

<!-- generated on 2022-10-18 01:57:29 by Eclipse SUMO netedit Version 1.12.0
<configuration xmlns:xsi="http://www.w3.org/2001/XMLSchema-instance" xsi:noNamespaceSchemaLocation="http://sumo.dlr.de/xsd/netconvertConfiguration.xsd">

    <input>
        <sumo-net-file value="C:\Coding\rongwu1.net.xml"/>
    </input>

    <output>
        <output-file value="C:\Coding\rongwu1.net.xml"/>
        <output.street-names value="true"/>
    </output>

    <processing>
        <geometry.min-radius.fix.railways value="false"/>
        <geometry.max-grade.fix value="false"/>
        <offset.disable-normalization value="true"/>
        <lefthand value="false"/>
    </processing>

    <junctions>
        <no-turnarounds value="true"/>
        <junctions.corner-detail value="5"/>
        <junctions.limit-turn-speed value="5.5"/>
        <rectangular-lane-cut value="false"/>
    </junctions>

    <pedestrian>
        <walkingareas value="false"/>
    </pedestrian>

    <report>
        <aggregate-warnings value="5"/>
    </report>

</configuration>
-->

<net version="1.9" junctionCornerDetail="5" limitTurnSpeed="5.50" xmlns:xsi="http://www.w3.org/2001/XMLSchema-instance" xsi:noNamespaceSchemaLocation="http://sumo.dlr.de/xsd/net_file.xsd">

    <location netOffset="-421299.02,-4316435.80" convBoundary="1818.91,0.00,13603.41,14468.94" origBoundary="116.090330,38.993792,116.325769,39.124560" projParameter="+proj=utm +zone=50 +ellps=WGS84 +datum=WGS84 +units=m +no_defs"/>

    <type id="highway.bridleway" priority="1" numLanes="1" speed="2.78" allow="pedestrian" oneway="1" width="2.00"/>
    <type id="highway.bus_guideway" priority="1" numLanes="1" speed="27.78" allow="bus" oneway="1"/>
    <type id="highway.cycleway" priority="1" numLanes="1" speed="8.33" allow="bicycle" oneway="0" width="1.00"/>
    <type id="highway.footway" priority="1" numLanes="1" speed="2.78" allow="pedestrian" oneway="1" width="2.00"/>
    <type id="highway.ford" priority="1" numLanes="1" speed="2.78" allow="army" oneway="0"/>
    <type id="highway.living_street" priority="2" numLanes="1" speed="2.78" disallow="tram rail_urban rail rail_electric rail_fast ship" oneway="0"/>
    <type id="highway.motorway" priority="14" numLanes="2" speed="39.44" allow="private emergency authority army vip passenger hov taxi bus coach delivery truck trailer motorcycle evehicle custom1 custom2" oneway="1"/>
    <type id="highway.motorway_link" priority="9" numLanes="1" speed="22.22" allow="private emergency authority army vip passenger hov taxi bus coach delivery truck trailer motorcycle evehicle custom1 custom2" oneway="1"/>
    <type id="highway.path" priority="1" numLanes="1" speed="2.78" allow="pedestrian bicycle" oneway="1" width="2.00"/>
    <type id="highway.pedestrian" priority="1" numLanes="1" speed="2.78" allow="pedestrian" oneway="1" width="2.00"/>
    <type id="highway.primary" priority="12" numLanes="2" speed="27.78" disallow="tram rail_urban rail rail_electric rail_fast ship" oneway="0"/>
    <type id="highway.primary_link" priority="7" numLanes="1" speed="22.22" disallow="tram rail_urban rail rail_electric rail_fast ship" oneway="0"/>
    <type id="highway.raceway" priority="15" numLanes="2" speed="83.33" allow="vip" oneway="0"/>
    <type id="highway.residential" priority="3" numLanes="1" speed="13.89" disallow="tram rail_urban rail rail_electric rail_fast ship" oneway="0"/>
    <type id="highway.secondary" priority="11" numLanes="1" speed="27.78" disallow="tram rail_urban rail rail_electric rail_fast ship" oneway="0"/>
    <type id="highway.secondary_link" priority="6" numLanes="1" speed="22.22" disallow="tram rail_urban rail rail_electric rail_fast ship" oneway="0"/>
    <type id="highway.service" priority="1" numLanes="1" speed="5.56" allow="pedestrian delivery bicycle" oneway="0"/>
    <type id="highway.stairs" priority="1" numLanes="1" speed="1.39" allow="pedestrian" oneway="1" width="2.00"/>
    <type id="highway.step" priority="1" numLanes="1" speed="1.39" allow="pedestrian" oneway="1" width="2.00"/>
    <type id="highway.steps" priority="1" numLanes="1" speed="1.39" allow="pedestrian" oneway="1" width="2.00"/>
    <type id="highway.tertiary" priority="10" numLanes="1" speed="22.22" disallow="tram rail_urban rail rail_electric rail_fast ship" oneway="0"/>
    <type id="highway.tertiary_link" priority="5" numLanes="1" speed="22.22" disallow="tram rail_urban rail rail_electric rail_fast ship" oneway="0"/>
    <type id="highway.track" priority="1" numLanes="1" speed="5.56" disallow="tram rail_urban rail rail_electric rail_fast ship" oneway="0"/>
    <type id="highway.trunk" priority="13" numLanes="2" speed="27.78" disallow="pedestrian bicycle tram rail_urban rail rail_electric rail_fast ship" oneway="0"/>
    <type id="highway.trunk_link" priority="8" numLanes="1" speed="22.22" disallow="pedestrian bicycle tram rail_urban rail rail_electric rail_fast ship" oneway="0"/>
    <type id="highway.unclassified" priority="4" numLanes="1" speed="13.89" disallow="tram rail_urban rail rail_electric rail_fast ship" oneway="0"/>
    <type id="highway.unsurfaced" priority="1" numLanes="1" speed="8.33" disallow="tram rail_urban rail rail_electric rail_fast ship" oneway="0"/>
    <type id="railway.highspeed" priority="21" numLanes="1" speed="69.44" allow="rail_fast" oneway="1"/>
    <type id="railway.light_rail" priority="19" numLanes="1" speed="27.78" allow="rail_urban" oneway="1"/>
    <type id="railway.preserved" priority="16" numLanes="1" speed="27.78" allow="rail" oneway="1"/>
    <type id="railway.rail" priority="20" numLanes="1" speed="44.44" allow="rail" oneway="1"/>
    <type id="railway.subway" priority="18" numLanes="1" speed="27.78" allow="rail_urban" oneway="1"/>
    <type id="railway.tram" priority="17" numLanes="1" speed="13.89" allow="tram" oneway="1"/>

    <edge id=":genJ18_0" function="internal">
        <lane id=":genJ18_0_0" index="0" allow="private emergency authority army vip passenger hov taxi bus coach delivery truck trailer motorcycle evehicle custom1 custom2" speed="16.67" length="36.02" shape="11967.27,10421.22 11964.59,10429.14 11962.43,10438.35 11960.59,10447.68 11958.85,10455.91"/>
        <lane id=":genJ18_0_1" index="1" allow="private emergency authority army vip passenger hov taxi bus coach delivery truck trailer motorcycle evehicle custom1 custom2" speed="16.67" length="36.02" shape="11964.34,10419.93 11961.63,10427.93 11959.41,10437.33 11957.51,10446.84 11955.74,10455.16"/>
    </edge>
    <edge id=":gneJ1_0" function="internal">
        <lane id=":gneJ1_0_0" index="0" allow="private emergency authority army vip passenger hov taxi bus coach delivery truck trailer motorcycle evehicle custom1 custom2" speed="27.77" length="0.48" shape="7485.43,10098.59 7485.75,10098.61"/>
        <lane id=":gneJ1_0_1" index="1" allow="private emergency authority army vip passenger hov taxi bus coach delivery truck trailer motorcycle evehicle custom1 custom2" speed="27.77" length="0.48" shape="7485.14,10101.78 7485.57,10101.81"/>
        <lane id=":gneJ1_0_2" index="2" allow="private emergency authority army vip passenger hov taxi bus coach delivery truck trailer motorcycle evehicle custom1 custom2" speed="27.77" length="0.48" shape="7484.86,10104.96 7485.39,10105.00"/>
        <lane id=":gneJ1_0_3" index="3" allow="private emergency authority army vip passenger hov taxi bus coach delivery truck trailer motorcycle evehicle custom1 custom2" speed="27.77" length="0.48" shape="7484.58,10108.15 7485.21,10108.20"/>
    </edge>
    <edge id=":gneJ10_0" function="internal">
        <lane id=":gneJ10_0_0" index="0" speed="22.22" length="99.48" shape="11523.30,10538.08 11621.51,10553.74"/>
        <lane id=":gneJ10_0_1" index="1" speed="22.22" length="99.48" shape="11523.30,10538.08 11621.02,10556.90"/>
    </edge>
    <edge id=":gneJ10_2" function="internal">
        <lane id=":gneJ10_2_0" index="0" allow="private emergency authority army vip passenger hov taxi bus coach delivery truck trailer motorcycle evehicle custom1 custom2" speed="27.77" length="99.58" shape="11523.30,10538.08 11620.36,10560.31"/>
        <lane id=":gneJ10_2_1" index="1" allow="private emergency authority army vip passenger hov taxi bus coach delivery truck trailer motorcycle evehicle custom1 custom2" speed="27.77" length="99.58" shape="11522.58,10541.20 11619.64,10563.43"/>
        <lane id=":gneJ10_2_2" index="2" allow="private emergency authority army vip passenger hov taxi bus coach delivery truck trailer motorcycle evehicle custom1 custom2" speed="27.77" length="99.58" shape="11521.86,10544.31 11618.93,10566.55"/>
        <lane id=":gneJ10_2_3" index="3" allow="private emergency authority army vip passenger hov taxi bus coach delivery truck trailer motorcycle evehicle custom1 custom2" speed="27.77" length="99.58" shape="11521.14,10547.43 11618.22,10569.67"/>
    </edge>
    <edge id=":gneJ11_0" function="internal">
        <lane id=":gneJ11_0_0" index="0" allow="private emergency authority army vip passenger hov taxi bus coach delivery truck trailer motorcycle evehicle custom1 custom2" speed="27.77" length="0.10" shape="12012.42,10650.11 12012.42,10650.11"/>
        <lane id=":gneJ11_0_1" index="1" allow="private emergency authority army vip passenger hov taxi bus coach delivery truck trailer motorcycle evehicle custom1 custom2" speed="27.77" length="0.10" shape="12011.71,10653.23 12011.71,10653.23"/>
        <lane id=":gneJ11_0_2" index="2" allow="private emergency authority army vip passenger hov taxi bus coach delivery truck trailer motorcycle evehicle custom1 custom2" speed="27.77" length="0.10" shape="12010.99,10656.35 12010.99,10656.35"/>
        <lane id=":gneJ11_0_3" index="3" allow="private emergency authority army vip passenger hov taxi bus coach delivery truck trailer motorcycle evehicle custom1 custom2" speed="27.77" length="0.10" shape="12010.28,10659.47 12010.28,10659.47"/>
    </edge>
    <edge id=":gneJ12_0" function="internal">
        <lane id=":gneJ12_0_0" index="0" allow="private emergency authority army vip passenger hov taxi bus coach delivery truck trailer motorcycle evehicle custom1 custom2" speed="27.77" length="28.15" shape="12262.47,10709.91 12289.59,10717.95"/>
        <lane id=":gneJ12_0_1" index="1" allow="private emergency authority army vip passenger hov taxi bus coach delivery truck trailer motorcycle evehicle custom1 custom2" speed="27.77" length="28.15" shape="12261.84,10713.05 12288.88,10721.07"/>
        <lane id=":gneJ12_0_2" index="2" allow="private emergency authority army vip passenger hov taxi bus coach delivery truck trailer motorcycle evehicle custom1 custom2" speed="27.77" length="28.15" shape="12261.22,10716.19 12288.16,10724.19"/>
        <lane id=":gneJ12_0_3" index="3" allow="private emergency authority army vip passenger hov taxi bus coach delivery truck trailer motorcycle evehicle custom1 custom2" speed="27.77" length="28.15" shape="12260.59,10719.33 12287.45,10727.31"/>
    </edge>
    <edge id=":gneJ12_4" function="internal">
        <lane id=":gneJ12_4_0" index="0" allow="private emergency authority army vip passenger hov taxi bus coach delivery truck trailer motorcycle evehicle custom1 custom2" speed="27.77" length="28.36" shape="12263.06,10706.95 12290.30,10714.83"/>
    </edge>
    <edge id=":gneJ13_0" function="internal">
        <lane id=":gneJ13_0_0" index="0" allow="private emergency authority army vip passenger hov taxi bus coach delivery truck trailer motorcycle evehicle custom1 custom2" speed="27.77" length="0.30" shape="12694.67,10808.25 12694.97,10808.32"/>
        <lane id=":gneJ13_0_1" index="1" allow="private emergency authority army vip passenger hov taxi bus coach delivery truck trailer motorcycle evehicle custom1 custom2" speed="27.77" length="0.30" shape="12693.98,10811.38 12694.27,10811.44"/>
        <lane id=":gneJ13_0_2" index="2" allow="private emergency authority army vip passenger hov taxi bus coach delivery truck trailer motorcycle evehicle custom1 custom2" speed="27.77" length="0.30" shape="12693.29,10814.50 12693.58,10814.56"/>
        <lane id=":gneJ13_0_3" index="3" allow="private emergency authority army vip passenger hov taxi bus coach delivery truck trailer motorcycle evehicle custom1 custom2" speed="27.77" length="0.30" shape="12692.60,10817.62 12692.88,10817.69"/>
    </edge>
    <edge id=":gneJ14_0" function="internal">
        <lane id=":gneJ14_0_0" index="0" allow="private emergency authority army vip passenger hov taxi bus coach delivery truck trailer motorcycle evehicle custom1 custom2" speed="27.77" length="0.10" shape="13145.03,10902.72 13145.03,10902.72"/>
        <lane id=":gneJ14_0_1" index="1" allow="private emergency authority army vip passenger hov taxi bus coach delivery truck trailer motorcycle evehicle custom1 custom2" speed="27.77" length="0.10" shape="13144.46,10905.87 13144.46,10905.87"/>
        <lane id=":gneJ14_0_2" index="2" allow="private emergency authority army vip passenger hov taxi bus coach delivery truck trailer motorcycle evehicle custom1 custom2" speed="27.77" length="0.10" shape="13143.88,10909.01 13143.88,10909.01"/>
        <lane id=":gneJ14_0_3" index="3" allow="private emergency authority army vip passenger hov taxi bus coach delivery truck trailer motorcycle evehicle custom1 custom2" speed="27.77" length="0.10" shape="13143.31,10912.16 13143.31,10912.16"/>
    </edge>
    <edge id=":gneJ16_0" function="internal">
        <lane id=":gneJ16_0_0" index="0" allow="private emergency authority army vip passenger hov taxi bus coach delivery truck trailer motorcycle evehicle custom1 custom2" speed="16.67" length="2.73" shape="11740.97,10572.42 11741.68,10572.56 11742.17,10572.68 11742.66,10572.75 11743.38,10572.77"/>
        <lane id=":gneJ16_0_1" index="1" allow="private emergency authority army vip passenger hov taxi bus coach delivery truck trailer motorcycle evehicle custom1 custom2" speed="16.67" length="2.73" shape="11740.47,10575.58 11741.35,10575.74 11741.95,10575.87 11742.55,10575.96 11743.44,10575.97"/>
    </edge>
    <edge id=":gneJ2_0" function="internal">
        <lane id=":gneJ2_0_0" index="0" allow="private emergency authority army vip passenger hov taxi bus coach delivery truck trailer motorcycle evehicle custom1 custom2" speed="27.77" length="0.10" shape="7891.86,10121.33 7891.86,10121.33"/>
        <lane id=":gneJ2_0_1" index="1" allow="private emergency authority army vip passenger hov taxi bus coach delivery truck trailer motorcycle evehicle custom1 custom2" speed="27.77" length="0.10" shape="7891.68,10124.52 7891.68,10124.52"/>
        <lane id=":gneJ2_0_2" index="2" allow="private emergency authority army vip passenger hov taxi bus coach delivery truck trailer motorcycle evehicle custom1 custom2" speed="27.77" length="0.10" shape="7891.50,10127.72 7891.50,10127.72"/>
        <lane id=":gneJ2_0_3" index="3" allow="private emergency authority army vip passenger hov taxi bus coach delivery truck trailer motorcycle evehicle custom1 custom2" speed="27.77" length="0.10" shape="7891.32,10130.91 7891.32,10130.91"/>
    </edge>
    <edge id=":gneJ20_0" function="internal">
        <lane id=":gneJ20_0_0" index="0" allow="private emergency authority army vip passenger hov taxi bus coach delivery truck trailer motorcycle evehicle custom1 custom2" speed="22.22" length="19.57" shape="12057.17,10649.68 12062.99,10652.62 12067.16,10655.81 12070.50,10658.57 12073.85,10660.24"/>
        <lane id=":gneJ20_0_1" index="1" allow="private emergency authority army vip passenger hov taxi bus coach delivery truck trailer motorcycle evehicle custom1 custom2" speed="22.22" length="19.57" shape="12056.12,10652.70 12062.01,10655.14 12066.55,10657.29 12070.30,10659.03 12073.85,10660.24"/>
    </edge>
    <edge id=":gneJ3_0" function="internal">
        <lane id=":gneJ3_0_0" index="0" allow="private emergency authority army vip passenger hov taxi bus coach delivery truck trailer motorcycle evehicle custom1 custom2" speed="27.77" length="0.10" shape="8446.52,10151.37 8446.52,10151.37"/>
        <lane id=":gneJ3_0_1" index="1" allow="private emergency authority army vip passenger hov taxi bus coach delivery truck trailer motorcycle evehicle custom1 custom2" speed="27.77" length="0.10" shape="8446.35,10154.56 8446.35,10154.56"/>
        <lane id=":gneJ3_0_2" index="2" allow="private emergency authority army vip passenger hov taxi bus coach delivery truck trailer motorcycle evehicle custom1 custom2" speed="27.77" length="0.10" shape="8446.17,10157.76 8446.17,10157.76"/>
        <lane id=":gneJ3_0_3" index="3" allow="private emergency authority army vip passenger hov taxi bus coach delivery truck trailer motorcycle evehicle custom1 custom2" speed="27.77" length="0.10" shape="8446.00,10160.95 8446.00,10160.95"/>
    </edge>
    <edge id=":gneJ4_0" function="internal">
        <lane id=":gneJ4_0_0" index="0" allow="private emergency authority army vip passenger hov taxi bus coach delivery truck trailer motorcycle evehicle custom1 custom2" speed="27.77" length="0.30" shape="9154.63,10189.28 9154.92,10189.29"/>
        <lane id=":gneJ4_0_1" index="1" allow="private emergency authority army vip passenger hov taxi bus coach delivery truck trailer motorcycle evehicle custom1 custom2" speed="27.77" length="0.30" shape="9154.46,10192.47 9154.76,10192.49"/>
        <lane id=":gneJ4_0_2" index="2" allow="private emergency authority army vip passenger hov taxi bus coach delivery truck trailer motorcycle evehicle custom1 custom2" speed="27.77" length="0.30" shape="9154.30,10195.67 9154.60,10195.69"/>
        <lane id=":gneJ4_0_3" index="3" allow="private emergency authority army vip passenger hov taxi bus coach delivery truck trailer motorcycle evehicle custom1 custom2" speed="27.77" length="0.30" shape="9154.13,10198.87 9154.44,10198.88"/>
    </edge>
    <edge id=":gneJ5_0" function="internal">
        <lane id=":gneJ5_0_0" index="0" allow="private emergency authority army vip passenger hov taxi bus coach delivery truck trailer motorcycle evehicle custom1 custom2" speed="27.77" length="0.10" shape="9366.66,10200.07 9366.66,10200.07"/>
        <lane id=":gneJ5_0_1" index="1" allow="private emergency authority army vip passenger hov taxi bus coach delivery truck trailer motorcycle evehicle custom1 custom2" speed="27.77" length="0.10" shape="9366.50,10203.26 9366.50,10203.26"/>
        <lane id=":gneJ5_0_2" index="2" allow="private emergency authority army vip passenger hov taxi bus coach delivery truck trailer motorcycle evehicle custom1 custom2" speed="27.77" length="0.10" shape="9366.34,10206.46 9366.34,10206.46"/>
        <lane id=":gneJ5_0_3" index="3" allow="private emergency authority army vip passenger hov taxi bus coach delivery truck trailer motorcycle evehicle custom1 custom2" speed="27.77" length="0.10" shape="9366.18,10209.65 9366.18,10209.65"/>
    </edge>
    <edge id=":gneJ6_0" function="internal">
        <lane id=":gneJ6_0_0" index="0" allow="private emergency authority army vip passenger hov taxi bus coach delivery truck trailer motorcycle evehicle custom1 custom2" speed="27.77" length="0.10" shape="9987.38,10240.69 9987.38,10240.69"/>
        <lane id=":gneJ6_0_1" index="1" allow="private emergency authority army vip passenger hov taxi bus coach delivery truck trailer motorcycle evehicle custom1 custom2" speed="27.77" length="0.10" shape="9987.01,10243.87 9987.01,10243.87"/>
        <lane id=":gneJ6_0_2" index="2" allow="private emergency authority army vip passenger hov taxi bus coach delivery truck trailer motorcycle evehicle custom1 custom2" speed="27.77" length="0.10" shape="9986.63,10247.05 9986.63,10247.05"/>
        <lane id=":gneJ6_0_3" index="3" allow="private emergency authority army vip passenger hov taxi bus coach delivery truck trailer motorcycle evehicle custom1 custom2" speed="27.77" length="0.10" shape="9986.26,10250.23 9986.26,10250.23"/>
    </edge>
    <edge id=":gneJ7_0" function="internal">
        <lane id=":gneJ7_0_0" index="0" allow="private emergency authority army vip passenger hov taxi bus coach delivery truck trailer motorcycle evehicle custom1 custom2" speed="27.77" length="0.30" shape="10390.01,10292.84 10390.31,10292.89"/>
        <lane id=":gneJ7_0_1" index="1" allow="private emergency authority army vip passenger hov taxi bus coach delivery truck trailer motorcycle evehicle custom1 custom2" speed="27.77" length="0.30" shape="10389.46,10295.99 10389.76,10296.04"/>
        <lane id=":gneJ7_0_2" index="2" allow="private emergency authority army vip passenger hov taxi bus coach delivery truck trailer motorcycle evehicle custom1 custom2" speed="27.77" length="0.30" shape="10388.91,10299.14 10389.20,10299.19"/>
        <lane id=":gneJ7_0_3" index="3" allow="private emergency authority army vip passenger hov taxi bus coach delivery truck trailer motorcycle evehicle custom1 custom2" speed="27.77" length="0.30" shape="10388.36,10302.29 10388.65,10302.34"/>
    </edge>
    <edge id=":gneJ8_0" function="internal">
        <lane id=":gneJ8_0_0" index="0" allow="private emergency authority army vip passenger hov taxi bus coach delivery truck trailer motorcycle evehicle custom1 custom2" speed="27.77" length="0.10" shape="10860.74,10385.26 10860.74,10385.26"/>
        <lane id=":gneJ8_0_1" index="1" allow="private emergency authority army vip passenger hov taxi bus coach delivery truck trailer motorcycle evehicle custom1 custom2" speed="27.77" length="0.10" shape="10860.03,10388.38 10860.03,10388.38"/>
        <lane id=":gneJ8_0_2" index="2" allow="private emergency authority army vip passenger hov taxi bus coach delivery truck trailer motorcycle evehicle custom1 custom2" speed="27.77" length="0.10" shape="10859.31,10391.50 10859.31,10391.50"/>
        <lane id=":gneJ8_0_3" index="3" allow="private emergency authority army vip passenger hov taxi bus coach delivery truck trailer motorcycle evehicle custom1 custom2" speed="27.77" length="0.10" shape="10858.60,10394.62 10858.60,10394.62"/>
    </edge>
    <edge id=":gneJ83_0" function="internal">
        <lane id=":gneJ83_0_0" index="0" speed="27.77" length="29.42" shape="12445.91,10751.52 12473.67,10759.36"/>
        <lane id=":gneJ83_0_1" index="1" speed="27.77" length="29.42" shape="12445.91,10751.52 12454.13,10754.20 12459.42,10757.08 12464.72,10759.91 12472.97,10762.49"/>
        <lane id=":gneJ83_0_2" index="2" speed="27.77" length="29.42" shape="12445.91,10751.52 12454.11,10754.71 12459.07,10758.64 12464.04,10762.53 12472.27,10765.61"/>
        <lane id=":gneJ83_0_3" index="3" speed="27.77" length="29.42" shape="12445.91,10751.52 12454.14,10755.23 12458.72,10760.20 12463.31,10765.13 12471.56,10768.73"/>
        <lane id=":gneJ83_0_4" index="4" speed="27.77" length="29.42" shape="12445.20,10754.64 12473.67,10759.36"/>
        <lane id=":gneJ83_0_5" index="5" speed="27.77" length="29.42" shape="12444.50,10757.76 12472.97,10762.49"/>
        <lane id=":gneJ83_0_6" index="6" speed="27.77" length="29.42" shape="12443.79,10760.88 12472.27,10765.61"/>
        <lane id=":gneJ83_0_7" index="7" speed="27.77" length="29.42" shape="12443.09,10764.00 12471.56,10768.73"/>
    </edge>
    <edge id=":gneJ9_0" function="internal">
        <lane id=":gneJ9_0_0" index="0" allow="private emergency authority army vip passenger hov taxi bus coach delivery truck trailer motorcycle evehicle custom1 custom2" speed="27.77" length="0.30" shape="11280.38,10481.87 11280.66,10481.94"/>
        <lane id=":gneJ9_0_1" index="1" allow="private emergency authority army vip passenger hov taxi bus coach delivery truck trailer motorcycle evehicle custom1 custom2" speed="27.77" length="0.30" shape="11279.65,10484.99 11279.94,10485.05"/>
        <lane id=":gneJ9_0_2" index="2" allow="private emergency authority army vip passenger hov taxi bus coach delivery truck trailer motorcycle evehicle custom1 custom2" speed="27.77" length="0.30" shape="11278.92,10488.10 11279.22,10488.17"/>
        <lane id=":gneJ9_0_3" index="3" allow="private emergency authority army vip passenger hov taxi bus coach delivery truck trailer motorcycle evehicle custom1 custom2" speed="27.77" length="0.30" shape="11278.19,10491.22 11278.49,10491.29"/>
    </edge>

    <edge id="lane0" from="gneJ85" to="gneJ1" priority="-1" spreadType="center">
        <lane id="lane0_0" index="0" speed="27.77" length="256.96" shape="7229.49,10075.71 7485.43,10098.59"/>
        <lane id="lane0_1" index="1" speed="27.77" length="256.96" shape="7229.20,10078.90 7485.14,10101.78"/>
        <lane id="lane0_2" index="2" speed="27.77" length="256.96" shape="7228.92,10082.08 7484.86,10104.96"/>
        <lane id="lane0_3" index="3" speed="27.77" length="256.96" shape="7228.63,10085.27 7484.58,10108.15"/>
    </edge>
    <edge id="lane1" from="gneJ1" to="gneJ2" name="荣乌高速" priority="14" type="highway.motorway" spreadType="center" length="490.00">
        <lane id="lane1_0" index="0" allow="private emergency authority army vip passenger hov taxi bus coach delivery truck trailer motorcycle evehicle custom1 custom2" speed="27.77" length="490.00" shape="7485.75,10098.61 7891.86,10121.33">
            <param key="origId" value="289742329 331672930 331672943 331672927 331672926"/>
        </lane>
        <lane id="lane1_1" index="1" allow="private emergency authority army vip passenger hov taxi bus coach delivery truck trailer motorcycle evehicle custom1 custom2" speed="27.77" length="490.00" shape="7485.57,10101.81 7891.68,10124.52">
            <param key="origId" value="289742329 331672930 331672943 331672927 331672926"/>
        </lane>
        <lane id="lane1_2" index="2" allow="private emergency authority army vip passenger hov taxi bus coach delivery truck trailer motorcycle evehicle custom1 custom2" speed="27.77" length="490.00" shape="7485.39,10105.00 7891.50,10127.72">
            <param key="origId" value="289742329 331672930 331672943 331672927 331672926"/>
        </lane>
        <lane id="lane1_3" index="3" allow="private emergency authority army vip passenger hov taxi bus coach delivery truck trailer motorcycle evehicle custom1 custom2" speed="27.77" length="490.00" shape="7485.21,10108.20 7891.32,10130.91">
            <param key="origId" value="289742329 331672930 331672943 331672927 331672926"/>
        </lane>
        <param key="ref" value="G18"/>
    </edge>
    <edge id="lane10_1" from="gneJ11" to="gneJ12" name="荣乌高速" priority="14" type="highway.motorway" spreadType="center" length="181.00" shape="12011.35,10654.79 12093.28,10673.57 12125.70,10681.16 12181.22,10695.66 12281.05,10719.23">
        <lane id="lane10_1_0" index="0" allow="private emergency authority army vip passenger hov taxi bus coach delivery truck trailer motorcycle evehicle custom1 custom2" speed="27.77" length="181.00" shape="12012.42,10650.11 12094.36,10668.89 12126.85,10676.50 12182.38,10691.00 12262.47,10709.91">
            <param key="origId" value="331672926 208484104 402673111 402673109 208484105"/>
        </lane>
        <lane id="lane10_1_1" index="1" allow="private emergency authority army vip passenger hov taxi bus coach delivery truck trailer motorcycle evehicle custom1 custom2" speed="27.77" length="181.00" shape="12011.71,10653.23 12093.64,10672.01 12126.08,10679.61 12181.61,10694.11 12261.84,10713.05">
            <param key="origId" value="331672926 208484104 402673111 402673109 208484105"/>
        </lane>
        <lane id="lane10_1_2" index="2" allow="private emergency authority army vip passenger hov taxi bus coach delivery truck trailer motorcycle evehicle custom1 custom2" speed="27.77" length="181.00" shape="12010.99,10656.35 12092.92,10675.13 12125.32,10682.71 12180.83,10697.21 12261.22,10716.19">
            <param key="origId" value="331672926 208484104 402673111 402673109 208484105"/>
        </lane>
        <lane id="lane10_1_3" index="3" allow="private emergency authority army vip passenger hov taxi bus coach delivery truck trailer motorcycle evehicle custom1 custom2" speed="27.77" length="181.00" shape="12010.28,10659.47 12092.20,10678.25 12124.55,10685.82 12180.06,10700.32 12260.59,10719.33">
            <param key="origId" value="331672926 208484104 402673111 402673109 208484105"/>
        </lane>
        <param key="ref" value="G18"/>
    </edge>
    <edge id="lane10_2" from="gneJ12" to="gneJ83" priority="-1" spreadType="center" length="160.00">
        <lane id="lane10_2_0" index="0" speed="27.77" length="160.00" acceleration="1" shape="12290.30,10714.83 12445.91,10751.52"/>
        <lane id="lane10_2_1" index="1" speed="27.77" length="160.00" shape="12289.59,10717.95 12445.20,10754.64"/>
        <lane id="lane10_2_2" index="2" speed="27.77" length="160.00" shape="12288.88,10721.07 12444.50,10757.76"/>
        <lane id="lane10_2_3" index="3" speed="27.77" length="160.00" shape="12288.16,10724.19 12443.79,10760.88"/>
        <lane id="lane10_2_4" index="4" speed="27.77" length="160.00" shape="12287.45,10727.31 12443.09,10764.00"/>
    </edge>
    <edge id="lane10_3" from="gneJ83" to="gneJ13" priority="-1" spreadType="center" length="226.00">
        <lane id="lane10_3_0" index="0" speed="27.77" length="226.00" shape="12473.67,10759.36 12694.67,10808.25"/>
        <lane id="lane10_3_1" index="1" speed="27.77" length="226.00" shape="12472.97,10762.49 12693.98,10811.38"/>
        <lane id="lane10_3_2" index="2" speed="27.77" length="226.00" shape="12472.27,10765.61 12693.29,10814.50"/>
        <lane id="lane10_3_3" index="3" speed="27.77" length="226.00" shape="12471.56,10768.73 12692.60,10817.62"/>
    </edge>
    <edge id="lane11" from="gneJ13" to="gneJ14" name="荣乌高速" priority="14" type="highway.motorway" spreadType="center" length="500.00" shape="12693.78,10812.97 12820.94,10841.27 13024.43,10885.63 13144.17,10907.44">